Version 4
SHEET 1 880 680
WIRE 336 -240 -448 -240
WIRE -80 -160 -176 -160
WIRE 80 -160 -16 -160
WIRE 224 -160 192 -160
WIRE 336 -160 336 -240
WIRE 336 -160 304 -160
WIRE 448 -160 336 -160
WIRE 448 -144 448 -160
WIRE -416 -128 -496 -128
WIRE -288 -128 -336 -128
WIRE 192 -128 192 -160
WIRE -448 -80 -448 -240
WIRE -608 -64 -640 -64
WIRE -496 -64 -496 -128
WIRE -496 -64 -528 -64
WIRE -480 -64 -496 -64
WIRE -288 -48 -288 -128
WIRE -288 -48 -416 -48
WIRE -272 -48 -288 -48
WIRE -176 -48 -176 -160
WIRE -176 -48 -192 -48
WIRE -160 -48 -176 -48
WIRE -48 -48 -80 -48
WIRE -16 -48 -48 -48
WIRE 80 -48 80 -160
WIRE 80 -48 64 -48
WIRE 96 -48 80 -48
WIRE 192 -48 176 -48
WIRE 416 -48 192 -48
WIRE 448 -48 448 -80
WIRE -480 -32 -512 -32
WIRE -640 -16 -640 -64
WIRE -48 0 -48 -48
WIRE -512 16 -512 -32
WIRE -640 96 -640 64
WIRE 336 96 336 -160
WIRE -48 112 -48 80
WIRE 304 112 -48 112
WIRE 416 128 416 -48
WIRE 416 128 368 128
WIRE 496 128 416 128
WIRE 304 144 256 144
WIRE -48 160 -48 112
WIRE 256 192 256 144
WIRE 336 208 336 160
WIRE 336 208 288 208
WIRE 448 208 336 208
WIRE 336 240 336 208
WIRE 448 256 448 208
WIRE -288 272 -288 -48
WIRE -160 272 -288 272
WIRE -48 272 -48 224
WIRE -48 272 -80 272
WIRE -16 272 -48 272
WIRE 192 272 192 -48
WIRE 192 272 64 272
WIRE 336 352 336 320
WIRE 448 352 448 320
WIRE -448 368 -448 -16
WIRE 288 368 288 208
WIRE 288 368 -448 368
FLAG 256 192 0
FLAG -640 96 0
FLAG 192 -128 0
FLAG 336 352 0
FLAG 448 -48 0
FLAG 448 352 0
FLAG -512 16 0
SYMBOL voltage 320 -160 R90
WINDOW 0 -32 56 VBottom 2
WINDOW 3 32 56 VTop 2
WINDOW 123 0 0 Left 2
WINDOW 39 0 0 Left 2
SYMATTR InstName V1
SYMATTR Value 24
SYMBOL res 80 -64 R90
WINDOW 0 0 56 VBottom 2
WINDOW 3 38 59 VTop 2
SYMATTR InstName R1
SYMATTR Value 50k
SYMBOL res 80 256 R90
WINDOW 0 0 56 VBottom 2
WINDOW 3 32 56 VTop 2
SYMATTR InstName R2
SYMATTR Value 60k
SYMBOL res -64 256 R90
WINDOW 0 0 56 VBottom 2
WINDOW 3 32 56 VTop 2
SYMATTR InstName R3
SYMATTR Value 60k
SYMBOL res -64 -64 R90
WINDOW 0 0 56 VBottom 2
WINDOW 3 32 56 VTop 2
SYMATTR InstName R4
SYMATTR Value 50k
SYMBOL cap -64 160 R0
SYMATTR InstName C1
SYMATTR Value 560p
SYMATTR SpiceLine Rser=10m
SYMBOL res -64 -16 R0
SYMATTR InstName R5
SYMATTR Value 22k
SYMBOL res 192 -64 R90
WINDOW 0 0 56 VBottom 2
WINDOW 3 32 56 VTop 2
SYMATTR InstName R6
SYMATTR Value 22k
SYMBOL res -176 -64 R90
WINDOW 0 0 56 VBottom 2
WINDOW 3 32 56 VTop 2
SYMATTR InstName R7
SYMATTR Value 22k
SYMBOL cap -16 -176 R90
WINDOW 0 0 32 VBottom 2
WINDOW 3 32 32 VTop 2
SYMATTR InstName C2
SYMATTR Value 56n
SYMATTR SpiceLine Rser=10m
SYMBOL voltage -640 -32 R0
WINDOW 3 24 152 Left 2
WINDOW 123 24 124 Left 2
WINDOW 39 0 0 Left 2
SYMATTR InstName V2
SYMATTR Value SINE(1.1 1 200)
SYMATTR Value2 AC 1
SYMBOL voltage 336 224 R0
WINDOW 123 0 0 Left 2
WINDOW 39 0 0 Left 2
SYMATTR InstName V3
SYMATTR Value -24
SYMBOL Opamps\\LT1115 336 64 R0
SYMATTR InstName U1
SYMBOL cap 432 256 R0
SYMATTR InstName C3
SYMATTR Value 100n
SYMBOL cap 432 -144 R0
SYMATTR InstName C4
SYMATTR Value 100n
SYMBOL Opamps\\LT1115 -448 -112 R0
SYMATTR InstName U2
SYMBOL res -432 -112 R270
WINDOW 0 32 56 VTop 2
WINDOW 3 0 56 VBottom 2
SYMATTR InstName R8
SYMATTR Value 50k
SYMBOL res -624 -48 R270
WINDOW 0 32 56 VTop 2
WINDOW 3 0 56 VBottom 2
SYMATTR InstName R9
SYMATTR Value 50k
TEXT 544 -128 Left 2 !;ac oct 20 1 40k
TEXT 16 -328 Left 2 !.tran 0 0.01s 0.001s 0.001s
