Version 4
SHEET 1 880 680
WIRE 336 -240 -448 -240
WIRE -560 -224 -592 -224
WIRE -288 -224 -496 -224
WIRE -80 -160 -176 -160
WIRE 80 -160 -16 -160
WIRE 224 -160 192 -160
WIRE 336 -160 336 -240
WIRE 336 -160 304 -160
WIRE 448 -160 336 -160
WIRE 448 -144 448 -160
WIRE -592 -128 -592 -224
WIRE -496 -128 -592 -128
WIRE -416 -128 -496 -128
WIRE -288 -128 -288 -224
WIRE -288 -128 -336 -128
WIRE 192 -128 192 -160
WIRE -448 -80 -448 -240
WIRE -832 -64 -912 -64
WIRE -720 -64 -768 -64
WIRE -608 -64 -720 -64
WIRE -496 -64 -496 -128
WIRE -496 -64 -528 -64
WIRE -480 -64 -496 -64
WIRE -720 -48 -720 -64
WIRE -288 -48 -288 -128
WIRE -288 -48 -416 -48
WIRE -272 -48 -288 -48
WIRE -176 -48 -176 -160
WIRE -176 -48 -192 -48
WIRE -160 -48 -176 -48
WIRE -48 -48 -80 -48
WIRE -16 -48 -48 -48
WIRE 80 -48 80 -160
WIRE 80 -48 64 -48
WIRE 96 -48 80 -48
WIRE 192 -48 176 -48
WIRE 416 -48 192 -48
WIRE 448 -48 448 -80
WIRE -480 -32 -512 -32
WIRE -912 -16 -912 -64
WIRE -48 0 -48 -48
WIRE 240 0 224 0
WIRE 416 0 416 -48
WIRE 416 0 304 0
WIRE -512 16 -512 -32
WIRE -720 64 -720 32
WIRE -912 96 -912 64
WIRE 336 96 336 -160
WIRE -48 112 -48 80
WIRE 224 112 224 0
WIRE 224 112 -48 112
WIRE 304 112 224 112
WIRE 416 128 416 0
WIRE 416 128 368 128
WIRE 544 128 416 128
WIRE 608 128 544 128
WIRE 736 128 672 128
WIRE 304 144 256 144
WIRE 544 144 544 128
WIRE 736 144 736 128
WIRE -48 160 -48 112
WIRE 256 192 256 144
WIRE 336 208 336 160
WIRE 336 208 288 208
WIRE 448 208 336 208
WIRE 336 240 336 208
WIRE 448 256 448 208
WIRE -288 272 -288 -48
WIRE -160 272 -288 272
WIRE -48 272 -48 224
WIRE -48 272 -80 272
WIRE -16 272 -48 272
WIRE 192 272 192 -48
WIRE 192 272 64 272
WIRE 544 272 544 224
WIRE 736 272 736 224
WIRE 336 352 336 320
WIRE 448 352 448 320
WIRE -448 368 -448 -16
WIRE 288 368 288 208
WIRE 288 368 -448 368
FLAG 256 192 0
FLAG -912 96 0
FLAG 192 -128 0
FLAG 336 352 0
FLAG 448 -48 0
FLAG 448 352 0
FLAG -512 16 0
FLAG -720 64 0
FLAG 544 272 0
FLAG 736 272 0
SYMBOL voltage 320 -160 R90
WINDOW 0 -32 56 VBottom 2
WINDOW 3 32 56 VTop 2
WINDOW 123 0 0 Left 2
WINDOW 39 0 0 Left 2
SYMATTR InstName V1
SYMATTR Value 24
SYMBOL res 80 -64 R90
WINDOW 0 0 56 VBottom 2
WINDOW 3 38 59 VTop 2
SYMATTR InstName R1
SYMATTR Value 50k
SYMBOL res 80 256 R90
WINDOW 0 0 56 VBottom 2
WINDOW 3 32 56 VTop 2
SYMATTR InstName R2
SYMATTR Value 65k
SYMBOL res -64 256 R90
WINDOW 0 0 56 VBottom 2
WINDOW 3 32 56 VTop 2
SYMATTR InstName R3
SYMATTR Value 60k
SYMBOL res -64 -64 R90
WINDOW 0 0 56 VBottom 2
WINDOW 3 32 56 VTop 2
SYMATTR InstName R4
SYMATTR Value 50k
SYMBOL cap -64 160 R0
SYMATTR InstName C1
SYMATTR Value 560p
SYMATTR SpiceLine Rser=10m
SYMBOL res -64 -16 R0
SYMATTR InstName R5
SYMATTR Value 22k
SYMBOL res 192 -64 R90
WINDOW 0 0 56 VBottom 2
WINDOW 3 32 56 VTop 2
SYMATTR InstName R6
SYMATTR Value 22k
SYMBOL res -176 -64 R90
WINDOW 0 0 56 VBottom 2
WINDOW 3 32 56 VTop 2
SYMATTR InstName R7
SYMATTR Value 22k
SYMBOL cap -16 -176 R90
WINDOW 0 0 32 VBottom 2
WINDOW 3 32 32 VTop 2
SYMATTR InstName C2
SYMATTR Value 56n
SYMATTR SpiceLine Rser=10m
SYMBOL voltage -912 -32 R0
WINDOW 3 24 152 Left 2
WINDOW 123 24 124 Left 2
WINDOW 39 0 0 Left 2
SYMATTR Value SINE(1.1 1 100)
SYMATTR Value2 AC 1
SYMATTR InstName V2
SYMBOL voltage 336 224 R0
WINDOW 123 0 0 Left 2
WINDOW 39 0 0 Left 2
SYMATTR InstName V3
SYMATTR Value -24
SYMBOL Opamps\\LT1115 336 64 R0
SYMATTR InstName U1
SYMBOL cap 432 256 R0
SYMATTR InstName C3
SYMATTR Value 100n
SYMBOL cap 432 -144 R0
SYMATTR InstName C4
SYMATTR Value 100n
SYMBOL Opamps\\LT1115 -448 -112 R0
SYMATTR InstName U2
SYMBOL res -432 -112 R270
WINDOW 0 32 56 VTop 2
WINDOW 3 0 56 VBottom 2
SYMATTR InstName R8
SYMATTR Value 50k
SYMBOL res -624 -48 R270
WINDOW 0 32 56 VTop 2
WINDOW 3 0 56 VBottom 2
SYMATTR InstName R9
SYMATTR Value 50k
SYMBOL cap 304 -16 R90
WINDOW 0 0 32 VBottom 2
WINDOW 3 32 32 VTop 2
SYMATTR InstName C5
SYMATTR Value 10p
SYMBOL cap -496 -240 R90
WINDOW 0 0 32 VBottom 2
WINDOW 3 32 32 VTop 2
SYMATTR InstName C6
SYMATTR Value 22p
SYMBOL res -736 -64 R0
SYMATTR InstName R10
SYMATTR Value 100k
SYMBOL cap -768 -80 R90
WINDOW 0 0 32 VBottom 2
WINDOW 3 32 32 VTop 2
SYMATTR InstName C7
SYMATTR Value 2.2µ
SYMBOL res 528 128 R0
SYMATTR InstName R11
SYMATTR Value 1k
SYMBOL cap 672 112 R90
WINDOW 0 0 32 VBottom 2
WINDOW 3 32 32 VTop 2
SYMATTR InstName C8
SYMATTR Value 470µ
SYMBOL res 720 128 R0
SYMATTR InstName R12
SYMATTR Value 32
TEXT 544 -128 Left 2 !;ac oct 20 1 500k
TEXT 544 -88 Left 2 !.tran 0 0.03s 0.01s 0.01s
