Version 4
SHEET 1 880 680
WIRE 336 -288 -448 -288
WIRE -432 -240 -560 -240
WIRE -288 -240 -368 -240
WIRE -80 -240 -176 -240
WIRE 80 -240 -16 -240
WIRE -16 -160 -32 -160
WIRE 80 -160 80 -240
WIRE 80 -160 64 -160
WIRE 224 -160 192 -160
WIRE 336 -160 336 -288
WIRE 336 -160 304 -160
WIRE -560 -144 -560 -240
WIRE -544 -144 -560 -144
WIRE -416 -144 -464 -144
WIRE -288 -144 -288 -240
WIRE -288 -144 -336 -144
WIRE -32 -144 -32 -160
WIRE 192 -128 192 -160
WIRE -448 -80 -448 -288
WIRE -688 -64 -736 -64
WIRE -560 -64 -560 -144
WIRE -560 -64 -608 -64
WIRE -480 -64 -560 -64
WIRE -288 -48 -288 -144
WIRE -288 -48 -416 -48
WIRE 80 -48 80 -160
WIRE 96 -48 80 -48
WIRE 192 -48 176 -48
WIRE 416 -48 192 -48
WIRE -480 -32 -560 -32
WIRE -736 -16 -736 -64
WIRE -288 -16 -288 -48
WIRE -272 -16 -288 -16
WIRE -176 -16 -176 -240
WIRE -176 -16 -192 -16
WIRE -160 -16 -176 -16
WIRE -48 -16 -80 -16
WIRE -32 -16 -32 -64
WIRE -32 -16 -48 -16
WIRE -48 0 -48 -16
WIRE 240 0 224 0
WIRE 416 0 416 -48
WIRE 416 0 304 0
WIRE -560 16 -560 -32
WIRE -448 16 -448 -16
WIRE -288 48 -288 -16
WIRE -176 48 -288 48
WIRE -736 96 -736 64
WIRE 336 96 336 -160
WIRE -48 112 -48 80
WIRE 224 112 224 0
WIRE 224 112 -48 112
WIRE 304 112 224 112
WIRE 416 128 416 0
WIRE 416 128 368 128
WIRE 448 128 416 128
WIRE 528 128 448 128
WIRE 304 144 224 144
WIRE 448 144 448 128
WIRE 528 144 528 128
WIRE -48 160 -48 112
WIRE 224 192 224 144
WIRE 336 224 336 160
WIRE -176 272 -176 48
WIRE -160 272 -176 272
WIRE -48 272 -48 224
WIRE -48 272 -80 272
WIRE -16 272 -48 272
WIRE 96 272 64 272
WIRE 192 272 192 -48
WIRE 192 272 176 272
WIRE 448 272 448 224
WIRE 528 272 528 224
FLAG 224 192 0
FLAG -736 96 0
FLAG 192 -128 0
FLAG 336 224 0
FLAG -448 16 0
FLAG 448 272 0
FLAG 528 272 0
FLAG -560 16 0
SYMBOL voltage 320 -160 R90
WINDOW 0 -32 56 VBottom 2
WINDOW 3 32 56 VTop 2
WINDOW 123 0 0 Left 2
WINDOW 39 0 0 Left 2
SYMATTR InstName V1
SYMATTR Value 24
SYMBOL res -16 -48 R180
WINDOW 0 36 76 Left 2
WINDOW 3 36 40 Left 2
SYMATTR InstName VR2_2
SYMATTR Value 50k
SYMBOL res 80 256 R90
WINDOW 0 0 56 VBottom 2
WINDOW 3 32 56 VTop 2
SYMATTR InstName VR3_2
SYMATTR Value 50k
SYMBOL res -64 256 R90
WINDOW 0 0 56 VBottom 2
WINDOW 3 32 56 VTop 2
SYMATTR InstName VR3_1
SYMATTR Value 50k
SYMBOL res -64 -32 R90
WINDOW 0 0 56 VBottom 2
WINDOW 3 32 56 VTop 2
SYMATTR InstName VR2_1
SYMATTR Value 50k
SYMBOL cap -64 160 R0
SYMATTR InstName C4
SYMATTR Value 560p
SYMATTR SpiceLine Rser=10m
SYMBOL res -64 -16 R0
SYMATTR InstName R5
SYMATTR Value 22k
SYMBOL res 192 -64 R90
WINDOW 0 0 56 VBottom 2
WINDOW 3 32 56 VTop 2
SYMATTR InstName R7
SYMATTR Value 22k
SYMBOL res -176 -32 R90
WINDOW 0 0 56 VBottom 2
WINDOW 3 32 56 VTop 2
SYMATTR InstName R4
SYMATTR Value 22k
SYMBOL cap -16 -256 R90
WINDOW 0 0 32 VBottom 2
WINDOW 3 32 32 VTop 2
SYMATTR InstName C3
SYMATTR Value 47n
SYMATTR SpiceLine Rser=10m
SYMBOL voltage -736 -32 R0
WINDOW 3 24 152 Left 2
WINDOW 123 24 124 Left 2
WINDOW 39 0 0 Left 2
SYMATTR Value SINE(0 1 1k)
SYMATTR Value2 AC 1
SYMATTR InstName V2
SYMBOL Opamps\\LT1115 336 64 R0
SYMATTR InstName U1
SYMBOL Opamps\\LT1115 -448 -112 R0
SYMATTR InstName U2
SYMBOL res -432 -128 R270
WINDOW 0 32 56 VTop 2
WINDOW 3 0 56 VBottom 2
SYMATTR InstName VR1
SYMATTR Value 50k
SYMBOL res -704 -48 R270
WINDOW 0 32 56 VTop 2
WINDOW 3 0 56 VBottom 2
SYMATTR InstName R2
SYMATTR Value 50k
SYMBOL cap 304 -16 R90
WINDOW 0 0 32 VBottom 2
WINDOW 3 32 32 VTop 2
SYMATTR InstName C5
SYMATTR Value 68p
SYMBOL cap -368 -256 R90
WINDOW 0 0 32 VBottom 2
WINDOW 3 32 32 VTop 2
SYMATTR InstName C2
SYMATTR Value 10p
SYMBOL res 432 128 R0
SYMATTR InstName R9
SYMATTR Value 1k
SYMBOL res 512 128 R0
SYMATTR InstName R10
SYMATTR Value 22k
SYMBOL res 192 256 R90
WINDOW 0 0 56 VBottom 2
WINDOW 3 32 56 VTop 2
SYMATTR InstName R8
SYMATTR Value 20k
SYMBOL res 80 -176 R90
WINDOW 0 0 56 VBottom 2
WINDOW 3 32 56 VTop 2
SYMATTR InstName R6
SYMATTR Value 10k
SYMBOL res -448 -160 R90
WINDOW 0 0 56 VBottom 2
WINDOW 3 32 56 VTop 2
SYMATTR InstName R3
SYMATTR Value 30k
TEXT -712 240 Left 2 !;ac oct 20 1 200k
TEXT -136 -160 Left 2 ;BASS
TEXT 0 184 Left 2 ;TREBLE
TEXT -712 272 Left 2 !.tran 0 0.0025s 0 0.01s
TEXT -744 184 Left 4 ;"The MULTIVERSE Preamp"
