Version 4
SHEET 1 880 680
WIRE 432 16 416 16
WIRE 560 16 512 16
WIRE 416 48 416 16
WIRE 560 96 560 16
WIRE 80 160 48 160
WIRE 272 160 160 160
WIRE 336 160 272 160
WIRE 432 160 416 160
WIRE 272 192 272 160
WIRE 48 208 48 160
WIRE 432 208 432 160
WIRE 560 240 560 176
WIRE 272 288 272 272
WIRE 272 288 176 288
WIRE 368 288 272 288
WIRE 496 288 448 288
WIRE 176 304 176 288
WIRE 272 304 272 288
WIRE 176 400 176 384
WIRE 272 400 272 368
WIRE 560 400 560 336
FLAG 272 400 0
FLAG 432 208 0
FLAG 48 208 0
FLAG 176 400 0
FLAG 560 400 0
FLAG 416 48 0
SYMBOL res 432 144 R90
WINDOW 0 0 56 VBottom 2
WINDOW 3 32 56 VTop 2
SYMATTR InstName R1
SYMATTR Value 24
SYMBOL res 288 288 R180
WINDOW 0 36 76 Left 2
WINDOW 3 36 40 Left 2
SYMATTR InstName R2
SYMATTR Value 3k
SYMBOL cap 256 304 R0
SYMATTR InstName C1
SYMATTR Value 150µ
SYMBOL voltage 176 160 R90
WINDOW 0 -32 56 VBottom 2
WINDOW 3 32 56 VTop 2
WINDOW 123 0 0 Left 2
WINDOW 39 0 0 Left 2
SYMATTR InstName V1
SYMATTR Value 35
SYMBOL res 160 288 R0
SYMATTR InstName R3
SYMATTR Value 720
SYMBOL voltage 528 16 R90
WINDOW 0 -32 56 VBottom 2
WINDOW 3 32 56 VTop 2
WINDOW 123 0 0 Left 2
WINDOW 39 0 0 Left 2
SYMATTR InstName V2
SYMATTR Value 12
SYMBOL res 544 80 R0
SYMATTR InstName R4
SYMATTR Value 180
SYMBOL res 464 272 R90
WINDOW 0 0 56 VBottom 2
WINDOW 3 32 56 VTop 2
SYMATTR InstName R5
SYMATTR Value 50
SYMBOL pnp 496 240 R0
SYMATTR InstName Q1
SYMATTR Value 2N3906
TEXT -216 304 Left 2 !.tran 0 0.5s 0 0.001s startup
