Version 4
SHEET 1 880 680
WIRE -64 -48 -96 -48
WIRE 16 -48 0 -48
WIRE 160 -48 16 -48
WIRE -96 -16 -96 -48
WIRE 16 -16 16 -48
WIRE 160 -16 160 -48
WIRE -80 96 -112 96
WIRE 16 96 16 64
WIRE 16 96 0 96
WIRE 48 96 16 96
WIRE 208 96 48 96
WIRE 352 96 208 96
WIRE 592 96 352 96
WIRE -112 128 -112 96
WIRE 160 128 160 64
WIRE 272 128 160 128
WIRE 352 128 352 96
WIRE 384 128 352 128
WIRE 496 128 464 128
WIRE 48 144 48 96
WIRE 272 144 272 128
WIRE 592 144 592 96
WIRE 496 176 496 128
WIRE 208 224 208 96
WIRE 48 240 48 224
WIRE 112 240 48 240
WIRE 160 240 160 128
WIRE 176 240 160 240
WIRE 48 256 48 240
WIRE 272 256 272 224
WIRE 272 256 240 256
WIRE 320 256 272 256
WIRE 416 256 400 256
WIRE 448 256 416 256
WIRE 592 256 592 224
WIRE 112 272 112 240
WIRE 176 272 112 272
WIRE 416 272 416 256
WIRE 48 368 48 336
WIRE 208 368 208 288
WIRE 208 368 48 368
WIRE 416 368 416 352
WIRE 416 368 208 368
WIRE 496 368 496 272
WIRE 496 368 416 368
WIRE 48 384 48 368
FLAG -112 128 0
FLAG 592 256 0
FLAG 48 384 0
FLAG -96 -16 0
SYMBOL voltage 16 96 R90
WINDOW 0 -32 56 VBottom 2
WINDOW 3 32 56 VTop 2
WINDOW 123 0 0 Left 2
WINDOW 39 0 0 Left 2
SYMATTR InstName V1
SYMATTR Value 12
SYMBOL res 32 128 R0
SYMATTR InstName R1
SYMATTR Value 105k
SYMBOL res 32 240 R0
SYMATTR InstName R2
SYMATTR Value 10k
SYMBOL Opamps\\UniversalOpamp2 208 256 R0
SYMATTR InstName U1
SYMBOL res 576 128 R0
SYMATTR InstName R3
SYMATTR Value 500
SYMBOL cap 0 -64 R90
WINDOW 0 0 32 VBottom 2
WINDOW 3 32 32 VTop 2
SYMATTR InstName C1
SYMATTR Value 50µ
SYMBOL res 0 -32 R0
SYMATTR InstName R4
SYMATTR Value 10k
SYMBOL res 480 112 R90
WINDOW 0 0 56 VBottom 2
WINDOW 3 32 56 VTop 2
SYMATTR InstName R5
SYMATTR Value 180
SYMBOL res 256 128 R0
SYMATTR InstName R6
SYMATTR Value 50k
SYMBOL res 176 80 R180
WINDOW 0 36 76 Left 2
WINDOW 3 36 40 Left 2
SYMATTR InstName R7
SYMATTR Value 1k
SYMBOL res 400 256 R0
SYMATTR InstName R8
SYMATTR Value 1k
SYMBOL res 416 240 R90
WINDOW 0 0 56 VBottom 2
WINDOW 3 32 56 VTop 2
SYMATTR InstName R9
SYMATTR Value 100
SYMBOL nmos 448 176 R0
SYMATTR InstName M1
SYMATTR Value IRF6201
TEXT 232 32 Left 2 !.tran 0 0.5s 0 0.001s startup
